[General]
sim-time-limit=600.15s	# For better memory management - please don't use round numbers
#record-eventlog = true
##############################################
#		GUI 
##############################################
seed-set = ${seed = 2021}
##############################################
#		Routing module
##############################################
**.alpha = 5 #${alpha=5}
**.m_var = 5 #${mVar=5}
**.changeRate = 25s
##############################################
#		App module
##############################################
**.terminal[*].app.packetLength = 1500bytes
**.terminal[*].app.sendIaTime = exponential(100ms)
**.terminal[*].app.burst_next_interval = exponential(250ms)
**.terminal[*].app.burst_size = intuniform(80,320)
**.terminal[*].app.pingTime = exponential(3s)
**.rte[*].appType = "App"
##############################################
#		Queue module
##############################################
**.rte[*].frameCapacity = 1200 # minimum value = 1200
**.load_balance_mode = true #${LB=true}		# Allow load balancing
**.load_balance_link_prediction = true #${LinkPre=false, true}	# Allow link prediction
**.load_threshold = 80
output-scalar-file = ${resultdir}/test_faults/${configname}-${iterationvars}-${repetition}.sca
output-vector-file = ${resultdir}/test_faults/${configname}-${iterationvars}-${repetition}.vec

##############################################
#		Statistics
##############################################
# Turn off old/unwanted statistics
**.rte[*].app.*.statistic-recording = false
**.rte[*].routing.*.statistic-recording = false
**.rte[*].queue.throughput.statistic-recording = false
**.rte[*].grid.*.statistic-recording = false
**.rte[*].mobility.statistic-recording = false
**.terminal[*].mobility.statistic-recording = false
**.terminal[*].coordX.statistic-recording = false
**.terminal[*].coordY.statistic-recording = false
######################################################################################################################

#										WORKING ZONE - Simulation of K satellites

###################################################################################################################### 
[Config NetK] 
network = networks.NetK
**.num_of_hosts = 25
**.num_of_terminals = 2
*.rte[*].app.hasApp = false
*.terminal[*].radius = 3600m #3.6m
*.terminal[*].frac = 0.8
*.rte[*].maxTerminalNumber = 20 		#Maximum number of terminals connected at once to a satellite
*.rte[*].maxHopCountForTerminalList = 2
*.rte[*].recoveryFromFaultInterval = 700s
*.rte[*].timeToNextFault = 10s
*.rte[*].methodToChooseRoots = ${method=0, 1}
*.rte[*].allowedNumberOfLinksDown = ${linksDown=0,1,2}

###################################################
#		Mobility Settings - Constraints
###################################################
**.maxX = 22500m
**.maxY = 22500m
**.minX = 0m
**.minY = 0m

###################################################
#		Mobility Settings - Satellites
###################################################
*.rte[*].mobility.typename = "TurtleMobility"
*.rte[*].mobilityType = "TurtleMobility"

## Generated by [buildXMLFiles.py]
*.rte[0].mobility.turtleScript = xmldoc("mobility.xml", "movements//movement[@id='0']")
*.rte[1].mobility.turtleScript = xmldoc("mobility.xml", "movements//movement[@id='1']")
*.rte[2].mobility.turtleScript = xmldoc("mobility.xml", "movements//movement[@id='2']")
*.rte[3].mobility.turtleScript = xmldoc("mobility.xml", "movements//movement[@id='3']")
*.rte[4].mobility.turtleScript = xmldoc("mobility.xml", "movements//movement[@id='4']")
*.rte[5].mobility.turtleScript = xmldoc("mobility.xml", "movements//movement[@id='5']")
*.rte[6].mobility.turtleScript = xmldoc("mobility.xml", "movements//movement[@id='6']")
*.rte[7].mobility.turtleScript = xmldoc("mobility.xml", "movements//movement[@id='7']")
*.rte[8].mobility.turtleScript = xmldoc("mobility.xml", "movements//movement[@id='8']")
*.rte[9].mobility.turtleScript = xmldoc("mobility.xml", "movements//movement[@id='9']")
*.rte[10].mobility.turtleScript = xmldoc("mobility.xml", "movements//movement[@id='10']")
*.rte[11].mobility.turtleScript = xmldoc("mobility.xml", "movements//movement[@id='11']")
*.rte[12].mobility.turtleScript = xmldoc("mobility.xml", "movements//movement[@id='12']")
*.rte[13].mobility.turtleScript = xmldoc("mobility.xml", "movements//movement[@id='13']")
*.rte[14].mobility.turtleScript = xmldoc("mobility.xml", "movements//movement[@id='14']")
*.rte[15].mobility.turtleScript = xmldoc("mobility.xml", "movements//movement[@id='15']")
*.rte[16].mobility.turtleScript = xmldoc("mobility.xml", "movements//movement[@id='16']")
*.rte[17].mobility.turtleScript = xmldoc("mobility.xml", "movements//movement[@id='17']")
*.rte[18].mobility.turtleScript = xmldoc("mobility.xml", "movements//movement[@id='18']")
*.rte[19].mobility.turtleScript = xmldoc("mobility.xml", "movements//movement[@id='19']")
*.rte[20].mobility.turtleScript = xmldoc("mobility.xml", "movements//movement[@id='20']")
*.rte[21].mobility.turtleScript = xmldoc("mobility.xml", "movements//movement[@id='21']")
*.rte[22].mobility.turtleScript = xmldoc("mobility.xml", "movements//movement[@id='22']")
*.rte[23].mobility.turtleScript = xmldoc("mobility.xml", "movements//movement[@id='23']")
*.rte[24].mobility.turtleScript = xmldoc("mobility.xml", "movements//movement[@id='24']")

###################################################
#		Mobility Settings - Terminals
###################################################
*.terminal[*].mobility.typename = "StationaryMobility"
*.terminal[*].mobilityType = "StationaryMobility"
